Circuit: * F:\Daniel\Documents\GitHub\Voltmeter\Hardware\AC voltage detect with frequency detect.asc

WARNING: Node NC_02 is floating.

WARNING: Less than two connections to node N010.  This node is used by D3.
WARNING: Less than two connections to node N008.  This node is used by D4.
WARNING: Less than two connections to node NC_01.  This node is used by D5.
WARNING: Less than two connections to node NC_02.  This node is used by D5.
Direct Newton iteration for .op point succeeded.
Heightened Def Con from 0.0841629 to 0.0841629
Heightened Def Con from 0.184161 to 0.184161
Heightened Def Con from 0.524161 to 0.524161
Heightened Def Con from 0.704145 to 0.704145
Heightened Def Con from 0.864163 to 0.864163

Date: Tue Sep 17 11:01:29 2024
Total elapsed time: 0.434 seconds.

tnom = 27
temp = 27
method = modified trap
totiter = 74121
traniter = 74085
tranpoints = 20525
accept = 14507
rejected = 6023
matrix size = 26
fillins = 6
solver = Normal
Thread vector: 3.5/3.1[2] 1.3/1.3[1] 0.5/0.7[1] 0.1/0.7[1]  2592/500
Matrix Compiler1: 1.53 KB object code size  0.5/0.2/[0.1]
Matrix Compiler2: off  [0.2]/0.3/0.2

