Circuit: * F:\Daniel\Documents\GitHub\Voltmeter\Hardware\Voltmeter with range select simplified.asc

Direct Newton iteration failed to find .op point.  (Use ".option noopiter" to skip.)
Starting Gmin stepping
Gmin = 10
Gmin = 1.07374
Gmin = 0.115292
Gmin = 0.0123794
Gmin = 0.00132923
Gmin = 0.000142725
Gmin = 1.5325e-005
Gmin = 1.6455e-006
Gmin = 1.76685e-007
Gmin = 1.89714e-008
vernier = 0.5
vernier = 0.25
vernier = 0.125
vernier = 0.0625
Gmin = 6.21654e-009
vernier = 0.03125
vernier = 0.015625
vernier = 0.0078125
vernier = 0.0104167
Gmin = 6.12425e-009
vernier = 0.0138889
Gmin = 5.93612e-009
vernier = 0.0185185
vernier = 0.0246913
Gmin = 5.63347e-009
vernier = 0.0329218
vernier = 0.0438957
Gmin = 5.18313e-009
vernier = 0.0585276
Gmin = 4.54759e-009
vernier = 0.0780367
vernier = 0.104049
Gmin = 3.65447e-009
vernier = 0.138732
vernier = 0.184976
Gmin = 2.5847e-009
vernier = 0.246634
Gmin = 1.5065e-009
vernier = 0.328846
vernier = 0.438461
Gmin = 6.18595e-010
vernier = 0.584614
vernier = 0.779486
Gmin = 1.55225e-010
vernier = 1
Gmin = 1.99626e-011
Gmin = 2.14347e-012
Gmin = 2.30153e-013
Gmin = 0
Gmin stepping succeeded in finding the operating point.

Direct Newton iteration failed to find .op point.  (Use ".option noopiter" to skip.)
Starting Gmin stepping
Gmin = 10
Gmin = 1.07374
Gmin = 0.115292
Gmin = 0.0123794
Gmin = 0.00132923
Gmin = 0.000142725
Gmin = 1.5325e-005
vernier = 0.5
vernier = 0.25
vernier = 0.125
vernier = 0.0625
Gmin = 1.08977e-005
vernier = 0.03125
vernier = 0.015625
vernier = 0.0078125
Gmin = 1.07292e-005
vernier = 0.0104167
vernier = 0.0138889
Gmin = 1.04651e-005
vernier = 0.0185185
Gmin = 1.00505e-005
vernier = 0.0246913
vernier = 0.0329218
Gmin = 9.40734e-006
vernier = 0.0438957
vernier = 0.0585276
Gmin = 8.47304e-006
vernier = 0.0780367
Gmin = 7.15387e-006
vernier = 0.104049
vernier = 0.138732
Gmin = 5.43016e-006
vernier = 0.184976
vernier = 0.246634
Gmin = 3.52053e-006
vernier = 0.328846
Gmin = 1.75842e-006
vernier = 0.438461
vernier = 0.584614
Gmin = 5.7816e-007
vernier = 0.779486
vernier = 1
Gmin = 1.05556e-007
Gmin = 1.1334e-008
vernier = 0.5
vernier = 0.25
Gmin = 4.838e-009
vernier = 0.333333
vernier = 0.444444
Gmin = 2.14744e-009
vernier = 0.592592
Gmin = 6.1504e-010
vernier = 0.790123
vernier = 1
Gmin = 8.54168e-011
Gmin = 9.17156e-012
Gmin = 9.84788e-013
Gmin = 1.05741e-013
Gmin = 0
Gmin stepping succeeded in finding the operating point.

Direct Newton iteration failed to find .op point.  (Use ".option noopiter" to skip.)
Starting Gmin stepping
Gmin = 10
Gmin = 1.07374
Gmin = 0.115292
Gmin = 0.0123794
Gmin = 0.00132923
Gmin = 0.000142725
Gmin = 1.5325e-005
Gmin = 1.6455e-006
Gmin = 1.76685e-007
Gmin = 1.89714e-008
Gmin = 2.03704e-009
Gmin = 2.18725e-010
Gmin = 2.34854e-011
Gmin = 2.52173e-012
Gmin = 2.70769e-013
Gmin = 0
Gmin stepping succeeded in finding the operating point.


Date: Tue Sep 17 09:17:18 2024
Total elapsed time: 0.533 seconds.

tnom = 27
temp = 27
method = trap
totiter = 4791
traniter = 0
tranpoints = 0
accept = 0
rejected = 0
matrix size = 34
fillins = 17
solver = Normal
Matrix Compiler1: 2.84 KB object code size  0.8/0.5/[0.2]
Matrix Compiler2: 3.12 KB object code size  0.2/0.3/[0.2]

