Circuit: * F:\Daniel\Documents\GitHub\Voltmeter\Hardware\Voltmeter with range select simplified.asc

Direct Newton iteration failed to find .op point.  (Use ".option noopiter" to skip.)
Starting Gmin stepping
Gmin = 10
Gmin = 1.07374
Gmin = 0.115292
Gmin = 0.0123794
Gmin = 0.00132923
Gmin = 0.000142725
Gmin = 1.5325e-005
Gmin = 1.6455e-006
Gmin = 1.76685e-007
Gmin = 1.89714e-008
vernier = 0.5
vernier = 0.25
vernier = 0.125
vernier = 0.0625
Gmin = 6.21654e-009
vernier = 0.03125
vernier = 0.015625
vernier = 0.0078125
vernier = 0.0104167
Gmin = 6.12425e-009
vernier = 0.0138889
Gmin = 5.93612e-009
vernier = 0.0185185
vernier = 0.0246913
Gmin = 5.63347e-009
vernier = 0.0329218
vernier = 0.0438957
Gmin = 5.18313e-009
vernier = 0.0585276
Gmin = 4.54759e-009
vernier = 0.0780367
vernier = 0.104049
Gmin = 3.65447e-009
vernier = 0.138732
vernier = 0.184976
Gmin = 2.5847e-009
vernier = 0.246634
Gmin = 1.5065e-009
vernier = 0.328846
vernier = 0.438461
Gmin = 6.18595e-010
vernier = 0.584614
vernier = 0.779486
Gmin = 1.55225e-010
vernier = 1
Gmin = 1.99626e-011
Gmin = 2.14347e-012
Gmin = 2.30153e-013
Gmin = 0
Gmin stepping succeeded in finding the operating point.

Direct Newton iteration failed to find .op point.  (Use ".option noopiter" to skip.)
Starting Gmin stepping
Gmin = 10
Gmin = 1.07374
Gmin = 0.115292
Gmin = 0.0123794
Gmin = 0.00132923
Gmin = 0.000142725
Gmin = 1.5325e-005
vernier = 0.5
vernier = 0.25
vernier = 0.125
vernier = 0.0625
Gmin = 1.15388e-005
vernier = 0.03125
vernier = 0.015625
vernier = 0.0078125
Gmin = 1.12074e-005
vernier = 0.0104167
Gmin = 1.09481e-005
vernier = 0.0138889
vernier = 0.0185185
Gmin = 1.05265e-005
vernier = 0.0246913
vernier = 0.0329218
Gmin = 9.88819e-006
vernier = 0.0438957
Gmin = 8.96268e-006
vernier = 0.0585276
vernier = 0.0780367
Gmin = 7.60365e-006
vernier = 0.104049
vernier = 0.138732
Gmin = 5.85747e-006
vernier = 0.184976
Gmin = 3.89658e-006
vernier = 0.246634
vernier = 0.328846
Gmin = 1.98393e-006
vernier = 0.438461
vernier = 0.584614
Gmin = 6.90846e-007
vernier = 0.779486
Gmin = 1.37557e-007
vernier = 1
Gmin = 1.47701e-008
vernier = 0.5
Gmin = 3.77687e-009
vernier = 0.666667
vernier = 0.888888
Gmin = 7.29204e-010
vernier = 1
Gmin = 8.37584e-011
Gmin = 8.99349e-012
Gmin = 9.65669e-013
Gmin = 1.03688e-013
Gmin = 0
Gmin stepping succeeded in finding the operating point.


Date: Mon Sep 16 10:14:28 2024
Total elapsed time: 0.500 seconds.

tnom = 27
temp = 27
method = trap
totiter = 4180
traniter = 0
tranpoints = 0
accept = 0
rejected = 0
matrix size = 33
fillins = 21
solver = Normal
Matrix Compiler1: 2.94 KB object code size  0.5/0.3/[0.2]
Matrix Compiler2: 3.12 KB object code size  0.3/0.3/[0.2]

